
---------- Begin Simulation Statistics ----------
final_tick                                   48211000                       # Number of ticks from beginning of simulation (restored from checkpoints and never reset)
host_inst_rate                                 421853                       # Simulator instruction rate (inst/s)
host_mem_usage                                 655716                       # Number of bytes of host memory used
host_op_rate                                   484284                       # Simulator op (including micro ops) rate (op/s)
host_seconds                                     0.03                       # Real time elapsed on the host
host_tick_rate                             1390912071                       # Simulator tick rate (ticks/s)
sim_freq                                 1000000000000                       # Frequency of simulated ticks
sim_insts                                       14580                       # Number of instructions simulated
sim_ops                                         16779                       # Number of ops (including micro ops) simulated
sim_seconds                                  0.000048                       # Number of seconds simulated
sim_ticks                                    48211000                       # Number of ticks simulated
system.cpu.Branches                              2944                       # Number of branches fetched
system.cpu.committedInsts                       14580                       # Number of instructions committed
system.cpu.committedOps                         16779                       # Number of ops (including micro ops) committed
system.cpu.idle_fraction                     0.000000                       # Percentage of idle cycles
system.cpu.not_idle_fraction                 1.000000                       # Percentage of non-idle cycles
system.cpu.numCycles                            96422                       # number of cpu cycles simulated
system.cpu.numWorkItemsCompleted                    0                       # number of work items this cpu completed
system.cpu.numWorkItemsStarted                      0                       # number of work items this cpu started
system.cpu.num_busy_cycles               96421.998000                       # Number of busy cycles
system.cpu.num_cc_register_reads                58047                       # number of times the CC registers were read
system.cpu.num_cc_register_writes                9094                       # number of times the CC registers were written
system.cpu.num_conditional_control_insts         2065                       # number of instructions that are conditional controls
system.cpu.num_fp_alu_accesses                      0                       # Number of float alu accesses
system.cpu.num_fp_insts                             0                       # number of float instructions
system.cpu.num_fp_register_reads                    0                       # number of times the floating registers were read
system.cpu.num_fp_register_writes                   0                       # number of times the floating registers were written
system.cpu.num_func_calls                         561                       # number of times a function call or return occured
system.cpu.num_idle_cycles                   0.002000                       # Number of idle cycles
system.cpu.num_int_alu_accesses                 14604                       # Number of integer alu accesses
system.cpu.num_int_insts                        14604                       # number of integer instructions
system.cpu.num_int_register_reads               23656                       # number of times the integer registers were read
system.cpu.num_int_register_writes              10026                       # number of times the integer registers were written
system.cpu.num_load_insts                        2634                       # Number of load instructions
system.cpu.num_mem_refs                          5275                       # number of memory refs
system.cpu.num_store_insts                       2641                       # Number of store instructions
system.cpu.num_vec_alu_accesses                     0                       # Number of vector alu accesses
system.cpu.num_vec_insts                            0                       # number of vector instructions
system.cpu.num_vec_register_reads                  42                       # number of times the vector registers were read
system.cpu.num_vec_register_writes                 13                       # number of times the vector registers were written
system.cpu.op_class::No_OpClass                     0      0.00%      0.00% # Class of executed instruction
system.cpu.op_class::IntAlu                     11602     68.36%     68.36% # Class of executed instruction
system.cpu.op_class::IntMult                       73      0.43%     68.79% # Class of executed instruction
system.cpu.op_class::IntDiv                         0      0.00%     68.79% # Class of executed instruction
system.cpu.op_class::FloatAdd                       0      0.00%     68.79% # Class of executed instruction
system.cpu.op_class::FloatCmp                       0      0.00%     68.79% # Class of executed instruction
system.cpu.op_class::FloatCvt                       0      0.00%     68.79% # Class of executed instruction
system.cpu.op_class::FloatMult                      0      0.00%     68.79% # Class of executed instruction
system.cpu.op_class::FloatMultAcc                   0      0.00%     68.79% # Class of executed instruction
system.cpu.op_class::FloatDiv                       0      0.00%     68.79% # Class of executed instruction
system.cpu.op_class::FloatMisc                      0      0.00%     68.79% # Class of executed instruction
system.cpu.op_class::FloatSqrt                      0      0.00%     68.79% # Class of executed instruction
system.cpu.op_class::SimdAdd                        0      0.00%     68.79% # Class of executed instruction
system.cpu.op_class::SimdAddAcc                     0      0.00%     68.79% # Class of executed instruction
system.cpu.op_class::SimdAlu                        0      0.00%     68.79% # Class of executed instruction
system.cpu.op_class::SimdCmp                        0      0.00%     68.79% # Class of executed instruction
system.cpu.op_class::SimdCvt                        0      0.00%     68.79% # Class of executed instruction
system.cpu.op_class::SimdMisc                       0      0.00%     68.79% # Class of executed instruction
system.cpu.op_class::SimdMult                       0      0.00%     68.79% # Class of executed instruction
system.cpu.op_class::SimdMultAcc                    0      0.00%     68.79% # Class of executed instruction
system.cpu.op_class::SimdShift                      0      0.00%     68.79% # Class of executed instruction
system.cpu.op_class::SimdShiftAcc                   0      0.00%     68.79% # Class of executed instruction
system.cpu.op_class::SimdDiv                        0      0.00%     68.79% # Class of executed instruction
system.cpu.op_class::SimdSqrt                       0      0.00%     68.79% # Class of executed instruction
system.cpu.op_class::SimdFloatAdd                   0      0.00%     68.79% # Class of executed instruction
system.cpu.op_class::SimdFloatAlu                   0      0.00%     68.79% # Class of executed instruction
system.cpu.op_class::SimdFloatCmp                   0      0.00%     68.79% # Class of executed instruction
system.cpu.op_class::SimdFloatCvt                   0      0.00%     68.79% # Class of executed instruction
system.cpu.op_class::SimdFloatDiv                   0      0.00%     68.79% # Class of executed instruction
system.cpu.op_class::SimdFloatMisc                 21      0.12%     68.92% # Class of executed instruction
system.cpu.op_class::SimdFloatMult                  0      0.00%     68.92% # Class of executed instruction
system.cpu.op_class::SimdFloatMultAcc               0      0.00%     68.92% # Class of executed instruction
system.cpu.op_class::SimdFloatSqrt                  0      0.00%     68.92% # Class of executed instruction
system.cpu.op_class::SimdReduceAdd                  0      0.00%     68.92% # Class of executed instruction
system.cpu.op_class::SimdReduceAlu                  0      0.00%     68.92% # Class of executed instruction
system.cpu.op_class::SimdReduceCmp                  0      0.00%     68.92% # Class of executed instruction
system.cpu.op_class::SimdFloatReduceAdd             0      0.00%     68.92% # Class of executed instruction
system.cpu.op_class::SimdFloatReduceCmp             0      0.00%     68.92% # Class of executed instruction
system.cpu.op_class::SimdAes                        0      0.00%     68.92% # Class of executed instruction
system.cpu.op_class::SimdAesMix                     0      0.00%     68.92% # Class of executed instruction
system.cpu.op_class::SimdSha1Hash                   0      0.00%     68.92% # Class of executed instruction
system.cpu.op_class::SimdSha1Hash2                  0      0.00%     68.92% # Class of executed instruction
system.cpu.op_class::SimdSha256Hash                 0      0.00%     68.92% # Class of executed instruction
system.cpu.op_class::SimdSha256Hash2                0      0.00%     68.92% # Class of executed instruction
system.cpu.op_class::SimdShaSigma2                  0      0.00%     68.92% # Class of executed instruction
system.cpu.op_class::SimdShaSigma3                  0      0.00%     68.92% # Class of executed instruction
system.cpu.op_class::SimdPredAlu                    0      0.00%     68.92% # Class of executed instruction
system.cpu.op_class::MemRead                     2634     15.52%     84.44% # Class of executed instruction
system.cpu.op_class::MemWrite                    2641     15.56%    100.00% # Class of executed instruction
system.cpu.op_class::FloatMemRead                   0      0.00%    100.00% # Class of executed instruction
system.cpu.op_class::FloatMemWrite                  0      0.00%    100.00% # Class of executed instruction
system.cpu.op_class::IprAccess                      0      0.00%    100.00% # Class of executed instruction
system.cpu.op_class::InstPrefetch                   0      0.00%    100.00% # Class of executed instruction
system.cpu.op_class::total                      16971                       # Class of executed instruction
system.cpu.workload.numSyscalls                    10                       # Number of system calls
system.membus.snoop_filter.hit_multi_requests            2                       # Number of requests hitting in the snoop filter with multiple (>1) holders of the requested data.
system.membus.snoop_filter.hit_multi_snoops            0                       # Number of snoops hitting in the snoop filter with multiple (>1) holders of the requested data.
system.membus.snoop_filter.hit_single_requests           44                       # Number of requests hitting in the snoop filter with a single holder of the requested data.
system.membus.snoop_filter.hit_single_snoops            0                       # Number of snoops hitting in the snoop filter with a single holder of the requested data.
system.membus.snoop_filter.tot_requests           484                       # Total number of requests made to the snoop filter.
system.membus.snoop_filter.tot_snoops               0                       # Total number of snoops made to the snoop filter.
system.clk_domain.clock                          1000                       # Clock period in ticks
system.cpu.dcache.demand_hits::.cpu.data         4873                       # number of demand (read+write) hits
system.cpu.dcache.demand_hits::total             4873                       # number of demand (read+write) hits
system.cpu.dcache.overall_hits::.cpu.data         4894                       # number of overall hits
system.cpu.dcache.overall_hits::total            4894                       # number of overall hits
system.cpu.dcache.demand_misses::.cpu.data          162                       # number of demand (read+write) misses
system.cpu.dcache.demand_misses::total            162                       # number of demand (read+write) misses
system.cpu.dcache.overall_misses::.cpu.data          169                       # number of overall misses
system.cpu.dcache.overall_misses::total           169                       # number of overall misses
system.cpu.dcache.demand_miss_latency::.cpu.data      9521500                       # number of demand (read+write) miss cycles
system.cpu.dcache.demand_miss_latency::total      9521500                       # number of demand (read+write) miss cycles
system.cpu.dcache.overall_miss_latency::.cpu.data      9521500                       # number of overall miss cycles
system.cpu.dcache.overall_miss_latency::total      9521500                       # number of overall miss cycles
system.cpu.dcache.demand_accesses::.cpu.data         5035                       # number of demand (read+write) accesses
system.cpu.dcache.demand_accesses::total         5035                       # number of demand (read+write) accesses
system.cpu.dcache.overall_accesses::.cpu.data         5063                       # number of overall (read+write) accesses
system.cpu.dcache.overall_accesses::total         5063                       # number of overall (read+write) accesses
system.cpu.dcache.demand_miss_rate::.cpu.data     0.032175                       # miss rate for demand accesses
system.cpu.dcache.demand_miss_rate::total     0.032175                       # miss rate for demand accesses
system.cpu.dcache.overall_miss_rate::.cpu.data     0.033379                       # miss rate for overall accesses
system.cpu.dcache.overall_miss_rate::total     0.033379                       # miss rate for overall accesses
system.cpu.dcache.demand_avg_miss_latency::.cpu.data 58774.691358                       # average overall miss latency
system.cpu.dcache.demand_avg_miss_latency::total 58774.691358                       # average overall miss latency
system.cpu.dcache.overall_avg_miss_latency::.cpu.data 56340.236686                       # average overall miss latency
system.cpu.dcache.overall_avg_miss_latency::total 56340.236686                       # average overall miss latency
system.cpu.dcache.blocked_cycles::no_mshrs            0                       # number of cycles access was blocked
system.cpu.dcache.blocked_cycles::no_targets            0                       # number of cycles access was blocked
system.cpu.dcache.blocked::no_mshrs                 0                       # number of cycles access was blocked
system.cpu.dcache.blocked::no_targets               0                       # number of cycles access was blocked
system.cpu.dcache.avg_blocked_cycles::no_mshrs          nan                       # average number of cycles each access was blocked
system.cpu.dcache.avg_blocked_cycles::no_targets          nan                       # average number of cycles each access was blocked
system.cpu.dcache.demand_mshr_hits::.cpu.data            1                       # number of demand (read+write) MSHR hits
system.cpu.dcache.demand_mshr_hits::total            1                       # number of demand (read+write) MSHR hits
system.cpu.dcache.overall_mshr_hits::.cpu.data            1                       # number of overall MSHR hits
system.cpu.dcache.overall_mshr_hits::total            1                       # number of overall MSHR hits
system.cpu.dcache.demand_mshr_misses::.cpu.data          161                       # number of demand (read+write) MSHR misses
system.cpu.dcache.demand_mshr_misses::total          161                       # number of demand (read+write) MSHR misses
system.cpu.dcache.overall_mshr_misses::.cpu.data          167                       # number of overall MSHR misses
system.cpu.dcache.overall_mshr_misses::total          167                       # number of overall MSHR misses
system.cpu.dcache.demand_mshr_miss_latency::.cpu.data      9307500                       # number of demand (read+write) MSHR miss cycles
system.cpu.dcache.demand_mshr_miss_latency::total      9307500                       # number of demand (read+write) MSHR miss cycles
system.cpu.dcache.overall_mshr_miss_latency::.cpu.data      9635500                       # number of overall MSHR miss cycles
system.cpu.dcache.overall_mshr_miss_latency::total      9635500                       # number of overall MSHR miss cycles
system.cpu.dcache.demand_mshr_miss_rate::.cpu.data     0.031976                       # mshr miss rate for demand accesses
system.cpu.dcache.demand_mshr_miss_rate::total     0.031976                       # mshr miss rate for demand accesses
system.cpu.dcache.overall_mshr_miss_rate::.cpu.data     0.032984                       # mshr miss rate for overall accesses
system.cpu.dcache.overall_mshr_miss_rate::total     0.032984                       # mshr miss rate for overall accesses
system.cpu.dcache.demand_avg_mshr_miss_latency::.cpu.data 57810.559006                       # average overall mshr miss latency
system.cpu.dcache.demand_avg_mshr_miss_latency::total 57810.559006                       # average overall mshr miss latency
system.cpu.dcache.overall_avg_mshr_miss_latency::.cpu.data 57697.604790                       # average overall mshr miss latency
system.cpu.dcache.overall_avg_mshr_miss_latency::total 57697.604790                       # average overall mshr miss latency
system.cpu.dcache.replacements                      0                       # number of replacements
system.cpu.dcache.ReadReq_hits::.cpu.data         2421                       # number of ReadReq hits
system.cpu.dcache.ReadReq_hits::total            2421                       # number of ReadReq hits
system.cpu.dcache.ReadReq_misses::.cpu.data           92                       # number of ReadReq misses
system.cpu.dcache.ReadReq_misses::total            92                       # number of ReadReq misses
system.cpu.dcache.ReadReq_miss_latency::.cpu.data      5421500                       # number of ReadReq miss cycles
system.cpu.dcache.ReadReq_miss_latency::total      5421500                       # number of ReadReq miss cycles
system.cpu.dcache.ReadReq_accesses::.cpu.data         2513                       # number of ReadReq accesses(hits+misses)
system.cpu.dcache.ReadReq_accesses::total         2513                       # number of ReadReq accesses(hits+misses)
system.cpu.dcache.ReadReq_miss_rate::.cpu.data     0.036610                       # miss rate for ReadReq accesses
system.cpu.dcache.ReadReq_miss_rate::total     0.036610                       # miss rate for ReadReq accesses
system.cpu.dcache.ReadReq_avg_miss_latency::.cpu.data 58929.347826                       # average ReadReq miss latency
system.cpu.dcache.ReadReq_avg_miss_latency::total 58929.347826                       # average ReadReq miss latency
system.cpu.dcache.ReadReq_mshr_hits::.cpu.data            1                       # number of ReadReq MSHR hits
system.cpu.dcache.ReadReq_mshr_hits::total            1                       # number of ReadReq MSHR hits
system.cpu.dcache.ReadReq_mshr_misses::.cpu.data           91                       # number of ReadReq MSHR misses
system.cpu.dcache.ReadReq_mshr_misses::total           91                       # number of ReadReq MSHR misses
system.cpu.dcache.ReadReq_mshr_miss_latency::.cpu.data      5277500                       # number of ReadReq MSHR miss cycles
system.cpu.dcache.ReadReq_mshr_miss_latency::total      5277500                       # number of ReadReq MSHR miss cycles
system.cpu.dcache.ReadReq_mshr_miss_rate::.cpu.data     0.036212                       # mshr miss rate for ReadReq accesses
system.cpu.dcache.ReadReq_mshr_miss_rate::total     0.036212                       # mshr miss rate for ReadReq accesses
system.cpu.dcache.ReadReq_avg_mshr_miss_latency::.cpu.data 57994.505495                       # average ReadReq mshr miss latency
system.cpu.dcache.ReadReq_avg_mshr_miss_latency::total 57994.505495                       # average ReadReq mshr miss latency
system.cpu.dcache.WriteReq_hits::.cpu.data         2452                       # number of WriteReq hits
system.cpu.dcache.WriteReq_hits::total           2452                       # number of WriteReq hits
system.cpu.dcache.WriteReq_misses::.cpu.data           70                       # number of WriteReq misses
system.cpu.dcache.WriteReq_misses::total           70                       # number of WriteReq misses
system.cpu.dcache.WriteReq_miss_latency::.cpu.data      4100000                       # number of WriteReq miss cycles
system.cpu.dcache.WriteReq_miss_latency::total      4100000                       # number of WriteReq miss cycles
system.cpu.dcache.WriteReq_accesses::.cpu.data         2522                       # number of WriteReq accesses(hits+misses)
system.cpu.dcache.WriteReq_accesses::total         2522                       # number of WriteReq accesses(hits+misses)
system.cpu.dcache.WriteReq_miss_rate::.cpu.data     0.027756                       # miss rate for WriteReq accesses
system.cpu.dcache.WriteReq_miss_rate::total     0.027756                       # miss rate for WriteReq accesses
system.cpu.dcache.WriteReq_avg_miss_latency::.cpu.data 58571.428571                       # average WriteReq miss latency
system.cpu.dcache.WriteReq_avg_miss_latency::total 58571.428571                       # average WriteReq miss latency
system.cpu.dcache.WriteReq_mshr_misses::.cpu.data           70                       # number of WriteReq MSHR misses
system.cpu.dcache.WriteReq_mshr_misses::total           70                       # number of WriteReq MSHR misses
system.cpu.dcache.WriteReq_mshr_miss_latency::.cpu.data      4030000                       # number of WriteReq MSHR miss cycles
system.cpu.dcache.WriteReq_mshr_miss_latency::total      4030000                       # number of WriteReq MSHR miss cycles
system.cpu.dcache.WriteReq_mshr_miss_rate::.cpu.data     0.027756                       # mshr miss rate for WriteReq accesses
system.cpu.dcache.WriteReq_mshr_miss_rate::total     0.027756                       # mshr miss rate for WriteReq accesses
system.cpu.dcache.WriteReq_avg_mshr_miss_latency::.cpu.data 57571.428571                       # average WriteReq mshr miss latency
system.cpu.dcache.WriteReq_avg_mshr_miss_latency::total 57571.428571                       # average WriteReq mshr miss latency
system.cpu.dcache.SoftPFReq_hits::.cpu.data           21                       # number of SoftPFReq hits
system.cpu.dcache.SoftPFReq_hits::total            21                       # number of SoftPFReq hits
system.cpu.dcache.SoftPFReq_misses::.cpu.data            7                       # number of SoftPFReq misses
system.cpu.dcache.SoftPFReq_misses::total            7                       # number of SoftPFReq misses
system.cpu.dcache.SoftPFReq_accesses::.cpu.data           28                       # number of SoftPFReq accesses(hits+misses)
system.cpu.dcache.SoftPFReq_accesses::total           28                       # number of SoftPFReq accesses(hits+misses)
system.cpu.dcache.SoftPFReq_miss_rate::.cpu.data     0.250000                       # miss rate for SoftPFReq accesses
system.cpu.dcache.SoftPFReq_miss_rate::total     0.250000                       # miss rate for SoftPFReq accesses
system.cpu.dcache.SoftPFReq_mshr_misses::.cpu.data            6                       # number of SoftPFReq MSHR misses
system.cpu.dcache.SoftPFReq_mshr_misses::total            6                       # number of SoftPFReq MSHR misses
system.cpu.dcache.SoftPFReq_mshr_miss_latency::.cpu.data       328000                       # number of SoftPFReq MSHR miss cycles
system.cpu.dcache.SoftPFReq_mshr_miss_latency::total       328000                       # number of SoftPFReq MSHR miss cycles
system.cpu.dcache.SoftPFReq_mshr_miss_rate::.cpu.data     0.214286                       # mshr miss rate for SoftPFReq accesses
system.cpu.dcache.SoftPFReq_mshr_miss_rate::total     0.214286                       # mshr miss rate for SoftPFReq accesses
system.cpu.dcache.SoftPFReq_avg_mshr_miss_latency::.cpu.data 54666.666667                       # average SoftPFReq mshr miss latency
system.cpu.dcache.SoftPFReq_avg_mshr_miss_latency::total 54666.666667                       # average SoftPFReq mshr miss latency
system.cpu.dcache.LoadLockedReq_hits::.cpu.data           38                       # number of LoadLockedReq hits
system.cpu.dcache.LoadLockedReq_hits::total           38                       # number of LoadLockedReq hits
system.cpu.dcache.LoadLockedReq_accesses::.cpu.data           38                       # number of LoadLockedReq accesses(hits+misses)
system.cpu.dcache.LoadLockedReq_accesses::total           38                       # number of LoadLockedReq accesses(hits+misses)
system.cpu.dcache.StoreCondReq_hits::.cpu.data           38                       # number of StoreCondReq hits
system.cpu.dcache.StoreCondReq_hits::total           38                       # number of StoreCondReq hits
system.cpu.dcache.StoreCondReq_accesses::.cpu.data           38                       # number of StoreCondReq accesses(hits+misses)
system.cpu.dcache.StoreCondReq_accesses::total           38                       # number of StoreCondReq accesses(hits+misses)
system.cpu.dcache.power_state.pwrStateResidencyTicks::UNDEFINED     48211000                       # Cumulative time (in ticks) in various power states
system.cpu.dcache.tags.tagsinuse           107.794198                       # Cycle average of tags in use
system.cpu.dcache.tags.total_refs                5137                       # Total number of references to valid blocks.
system.cpu.dcache.tags.sampled_refs               167                       # Sample count of references to valid blocks.
system.cpu.dcache.tags.avg_refs             30.760479                       # Average number of references to valid blocks.
system.cpu.dcache.tags.warmup_cycle            148000                       # Cycle when the warmup percentage was hit.
system.cpu.dcache.tags.occ_blocks::.cpu.data   107.794198                       # Average occupied blocks per requestor
system.cpu.dcache.tags.occ_percent::.cpu.data     0.105268                       # Average percentage of cache occupancy
system.cpu.dcache.tags.occ_percent::total     0.105268                       # Average percentage of cache occupancy
system.cpu.dcache.tags.occ_task_id_blocks::1024          167                       # Occupied blocks per task id
system.cpu.dcache.tags.age_task_id_blocks_1024::0           12                       # Occupied blocks per task id
system.cpu.dcache.tags.age_task_id_blocks_1024::1          155                       # Occupied blocks per task id
system.cpu.dcache.tags.occ_task_id_percent::1024     0.163086                       # Percentage of cache occupancy per task id
system.cpu.dcache.tags.tag_accesses             10445                       # Number of tag accesses
system.cpu.dcache.tags.data_accesses            10445                       # Number of data accesses
system.cpu.dcache.tags.power_state.pwrStateResidencyTicks::UNDEFINED     48211000                       # Cumulative time (in ticks) in various power states
system.cpu.dtb.instHits                             0                       # ITB inst hits
system.cpu.dtb.instMisses                           0                       # ITB inst misses
system.cpu.dtb.readHits                             0                       # DTB read hits
system.cpu.dtb.readMisses                           0                       # DTB read misses
system.cpu.dtb.writeHits                            0                       # DTB write hits
system.cpu.dtb.writeMisses                          0                       # DTB write misses
system.cpu.dtb.inserts                              0                       # Number of times an entry is inserted into the TLB
system.cpu.dtb.flushTlb                             0                       # Number of times complete TLB was flushed
system.cpu.dtb.flushTlbMva                          0                       # Number of times TLB was flushed by MVA
system.cpu.dtb.flushTlbMvaAsid                      0                       # Number of times TLB was flushed by MVA & ASID
system.cpu.dtb.flushTlbAsid                         0                       # Number of times TLB was flushed by ASID
system.cpu.dtb.flushedEntries                       0                       # Number of entries that have been flushed from TLB
system.cpu.dtb.alignFaults                          0                       # Number of TLB faults due to alignment restrictions
system.cpu.dtb.prefetchFaults                       0                       # Number of TLB faults due to prefetch
system.cpu.dtb.domainFaults                         0                       # Number of TLB faults due to domain restrictions
system.cpu.dtb.permsFaults                          0                       # Number of TLB faults due to permissions restrictions
system.cpu.dtb.readAccesses                         0                       # DTB read accesses
system.cpu.dtb.writeAccesses                        0                       # DTB write accesses
system.cpu.dtb.instAccesses                         0                       # ITB inst accesses
system.cpu.dtb.hits                                 0                       # Total TLB (inst and data) hits
system.cpu.dtb.misses                               0                       # Total TLB (inst and data) misses
system.cpu.dtb.accesses                             0                       # Total TLB (inst and data) accesses
system.cpu.dtb.stage2_mmu.stage2_tlb.instHits            0                       # ITB inst hits
system.cpu.dtb.stage2_mmu.stage2_tlb.instMisses            0                       # ITB inst misses
system.cpu.dtb.stage2_mmu.stage2_tlb.readHits            0                       # DTB read hits
system.cpu.dtb.stage2_mmu.stage2_tlb.readMisses            0                       # DTB read misses
system.cpu.dtb.stage2_mmu.stage2_tlb.writeHits            0                       # DTB write hits
system.cpu.dtb.stage2_mmu.stage2_tlb.writeMisses            0                       # DTB write misses
system.cpu.dtb.stage2_mmu.stage2_tlb.inserts            0                       # Number of times an entry is inserted into the TLB
system.cpu.dtb.stage2_mmu.stage2_tlb.flushTlb            0                       # Number of times complete TLB was flushed
system.cpu.dtb.stage2_mmu.stage2_tlb.flushTlbMva            0                       # Number of times TLB was flushed by MVA
system.cpu.dtb.stage2_mmu.stage2_tlb.flushTlbMvaAsid            0                       # Number of times TLB was flushed by MVA & ASID
system.cpu.dtb.stage2_mmu.stage2_tlb.flushTlbAsid            0                       # Number of times TLB was flushed by ASID
system.cpu.dtb.stage2_mmu.stage2_tlb.flushedEntries            0                       # Number of entries that have been flushed from TLB
system.cpu.dtb.stage2_mmu.stage2_tlb.alignFaults            0                       # Number of TLB faults due to alignment restrictions
system.cpu.dtb.stage2_mmu.stage2_tlb.prefetchFaults            0                       # Number of TLB faults due to prefetch
system.cpu.dtb.stage2_mmu.stage2_tlb.domainFaults            0                       # Number of TLB faults due to domain restrictions
system.cpu.dtb.stage2_mmu.stage2_tlb.permsFaults            0                       # Number of TLB faults due to permissions restrictions
system.cpu.dtb.stage2_mmu.stage2_tlb.readAccesses            0                       # DTB read accesses
system.cpu.dtb.stage2_mmu.stage2_tlb.writeAccesses            0                       # DTB write accesses
system.cpu.dtb.stage2_mmu.stage2_tlb.instAccesses            0                       # ITB inst accesses
system.cpu.dtb.stage2_mmu.stage2_tlb.hits            0                       # Total TLB (inst and data) hits
system.cpu.dtb.stage2_mmu.stage2_tlb.misses            0                       # Total TLB (inst and data) misses
system.cpu.dtb.stage2_mmu.stage2_tlb.accesses            0                       # Total TLB (inst and data) accesses
system.cpu.dtb.stage2_mmu.stage2_tlb.walker.walks            0                       # Table walker walks requested
system.cpu.dtb.stage2_mmu.stage2_tlb.walker.requestOrigin_Requested::Data            0                       # Table walker requests started/completed, data/inst
system.cpu.dtb.stage2_mmu.stage2_tlb.walker.requestOrigin_Requested::Inst            0                       # Table walker requests started/completed, data/inst
system.cpu.dtb.stage2_mmu.stage2_tlb.walker.requestOrigin_Requested::total            0                       # Table walker requests started/completed, data/inst
system.cpu.dtb.stage2_mmu.stage2_tlb.walker.requestOrigin_Completed::Data            0                       # Table walker requests started/completed, data/inst
system.cpu.dtb.stage2_mmu.stage2_tlb.walker.requestOrigin_Completed::Inst            0                       # Table walker requests started/completed, data/inst
system.cpu.dtb.stage2_mmu.stage2_tlb.walker.requestOrigin_Completed::total            0                       # Table walker requests started/completed, data/inst
system.cpu.dtb.stage2_mmu.stage2_tlb.walker.requestOrigin::total            0                       # Table walker requests started/completed, data/inst
system.cpu.dtb.stage2_mmu.stage2_tlb.walker.power_state.pwrStateResidencyTicks::UNDEFINED     48211000                       # Cumulative time (in ticks) in various power states
system.cpu.dtb.walker.walks                         0                       # Table walker walks requested
system.cpu.dtb.walker.requestOrigin_Requested::Data            0                       # Table walker requests started/completed, data/inst
system.cpu.dtb.walker.requestOrigin_Requested::Inst            0                       # Table walker requests started/completed, data/inst
system.cpu.dtb.walker.requestOrigin_Requested::total            0                       # Table walker requests started/completed, data/inst
system.cpu.dtb.walker.requestOrigin_Completed::Data            0                       # Table walker requests started/completed, data/inst
system.cpu.dtb.walker.requestOrigin_Completed::Inst            0                       # Table walker requests started/completed, data/inst
system.cpu.dtb.walker.requestOrigin_Completed::total            0                       # Table walker requests started/completed, data/inst
system.cpu.dtb.walker.requestOrigin::total            0                       # Table walker requests started/completed, data/inst
system.cpu.dtb.walker.power_state.pwrStateResidencyTicks::UNDEFINED     48211000                       # Cumulative time (in ticks) in various power states
system.cpu.icache.demand_hits::.cpu.inst        16653                       # number of demand (read+write) hits
system.cpu.icache.demand_hits::total            16653                       # number of demand (read+write) hits
system.cpu.icache.overall_hits::.cpu.inst        16653                       # number of overall hits
system.cpu.icache.overall_hits::total           16653                       # number of overall hits
system.cpu.icache.demand_misses::.cpu.inst          285                       # number of demand (read+write) misses
system.cpu.icache.demand_misses::total            285                       # number of demand (read+write) misses
system.cpu.icache.overall_misses::.cpu.inst          285                       # number of overall misses
system.cpu.icache.overall_misses::total           285                       # number of overall misses
system.cpu.icache.demand_miss_latency::.cpu.inst     16324000                       # number of demand (read+write) miss cycles
system.cpu.icache.demand_miss_latency::total     16324000                       # number of demand (read+write) miss cycles
system.cpu.icache.overall_miss_latency::.cpu.inst     16324000                       # number of overall miss cycles
system.cpu.icache.overall_miss_latency::total     16324000                       # number of overall miss cycles
system.cpu.icache.demand_accesses::.cpu.inst        16938                       # number of demand (read+write) accesses
system.cpu.icache.demand_accesses::total        16938                       # number of demand (read+write) accesses
system.cpu.icache.overall_accesses::.cpu.inst        16938                       # number of overall (read+write) accesses
system.cpu.icache.overall_accesses::total        16938                       # number of overall (read+write) accesses
system.cpu.icache.demand_miss_rate::.cpu.inst     0.016826                       # miss rate for demand accesses
system.cpu.icache.demand_miss_rate::total     0.016826                       # miss rate for demand accesses
system.cpu.icache.overall_miss_rate::.cpu.inst     0.016826                       # miss rate for overall accesses
system.cpu.icache.overall_miss_rate::total     0.016826                       # miss rate for overall accesses
system.cpu.icache.demand_avg_miss_latency::.cpu.inst 57277.192982                       # average overall miss latency
system.cpu.icache.demand_avg_miss_latency::total 57277.192982                       # average overall miss latency
system.cpu.icache.overall_avg_miss_latency::.cpu.inst 57277.192982                       # average overall miss latency
system.cpu.icache.overall_avg_miss_latency::total 57277.192982                       # average overall miss latency
system.cpu.icache.blocked_cycles::no_mshrs            0                       # number of cycles access was blocked
system.cpu.icache.blocked_cycles::no_targets            0                       # number of cycles access was blocked
system.cpu.icache.blocked::no_mshrs                 0                       # number of cycles access was blocked
system.cpu.icache.blocked::no_targets               0                       # number of cycles access was blocked
system.cpu.icache.avg_blocked_cycles::no_mshrs          nan                       # average number of cycles each access was blocked
system.cpu.icache.avg_blocked_cycles::no_targets          nan                       # average number of cycles each access was blocked
system.cpu.icache.writebacks::.writebacks           32                       # number of writebacks
system.cpu.icache.writebacks::total                32                       # number of writebacks
system.cpu.icache.demand_mshr_misses::.cpu.inst          285                       # number of demand (read+write) MSHR misses
system.cpu.icache.demand_mshr_misses::total          285                       # number of demand (read+write) MSHR misses
system.cpu.icache.overall_mshr_misses::.cpu.inst          285                       # number of overall MSHR misses
system.cpu.icache.overall_mshr_misses::total          285                       # number of overall MSHR misses
system.cpu.icache.demand_mshr_miss_latency::.cpu.inst     16039000                       # number of demand (read+write) MSHR miss cycles
system.cpu.icache.demand_mshr_miss_latency::total     16039000                       # number of demand (read+write) MSHR miss cycles
system.cpu.icache.overall_mshr_miss_latency::.cpu.inst     16039000                       # number of overall MSHR miss cycles
system.cpu.icache.overall_mshr_miss_latency::total     16039000                       # number of overall MSHR miss cycles
system.cpu.icache.demand_mshr_miss_rate::.cpu.inst     0.016826                       # mshr miss rate for demand accesses
system.cpu.icache.demand_mshr_miss_rate::total     0.016826                       # mshr miss rate for demand accesses
system.cpu.icache.overall_mshr_miss_rate::.cpu.inst     0.016826                       # mshr miss rate for overall accesses
system.cpu.icache.overall_mshr_miss_rate::total     0.016826                       # mshr miss rate for overall accesses
system.cpu.icache.demand_avg_mshr_miss_latency::.cpu.inst 56277.192982                       # average overall mshr miss latency
system.cpu.icache.demand_avg_mshr_miss_latency::total 56277.192982                       # average overall mshr miss latency
system.cpu.icache.overall_avg_mshr_miss_latency::.cpu.inst 56277.192982                       # average overall mshr miss latency
system.cpu.icache.overall_avg_mshr_miss_latency::total 56277.192982                       # average overall mshr miss latency
system.cpu.icache.replacements                     32                       # number of replacements
system.cpu.icache.ReadReq_hits::.cpu.inst        16653                       # number of ReadReq hits
system.cpu.icache.ReadReq_hits::total           16653                       # number of ReadReq hits
system.cpu.icache.ReadReq_misses::.cpu.inst          285                       # number of ReadReq misses
system.cpu.icache.ReadReq_misses::total           285                       # number of ReadReq misses
system.cpu.icache.ReadReq_miss_latency::.cpu.inst     16324000                       # number of ReadReq miss cycles
system.cpu.icache.ReadReq_miss_latency::total     16324000                       # number of ReadReq miss cycles
system.cpu.icache.ReadReq_accesses::.cpu.inst        16938                       # number of ReadReq accesses(hits+misses)
system.cpu.icache.ReadReq_accesses::total        16938                       # number of ReadReq accesses(hits+misses)
system.cpu.icache.ReadReq_miss_rate::.cpu.inst     0.016826                       # miss rate for ReadReq accesses
system.cpu.icache.ReadReq_miss_rate::total     0.016826                       # miss rate for ReadReq accesses
system.cpu.icache.ReadReq_avg_miss_latency::.cpu.inst 57277.192982                       # average ReadReq miss latency
system.cpu.icache.ReadReq_avg_miss_latency::total 57277.192982                       # average ReadReq miss latency
system.cpu.icache.ReadReq_mshr_misses::.cpu.inst          285                       # number of ReadReq MSHR misses
system.cpu.icache.ReadReq_mshr_misses::total          285                       # number of ReadReq MSHR misses
system.cpu.icache.ReadReq_mshr_miss_latency::.cpu.inst     16039000                       # number of ReadReq MSHR miss cycles
system.cpu.icache.ReadReq_mshr_miss_latency::total     16039000                       # number of ReadReq MSHR miss cycles
system.cpu.icache.ReadReq_mshr_miss_rate::.cpu.inst     0.016826                       # mshr miss rate for ReadReq accesses
system.cpu.icache.ReadReq_mshr_miss_rate::total     0.016826                       # mshr miss rate for ReadReq accesses
system.cpu.icache.ReadReq_avg_mshr_miss_latency::.cpu.inst 56277.192982                       # average ReadReq mshr miss latency
system.cpu.icache.ReadReq_avg_mshr_miss_latency::total 56277.192982                       # average ReadReq mshr miss latency
system.cpu.icache.power_state.pwrStateResidencyTicks::UNDEFINED     48211000                       # Cumulative time (in ticks) in various power states
system.cpu.icache.tags.tagsinuse           143.842403                       # Cycle average of tags in use
system.cpu.icache.tags.total_refs               16938                       # Total number of references to valid blocks.
system.cpu.icache.tags.sampled_refs               285                       # Sample count of references to valid blocks.
system.cpu.icache.tags.avg_refs             59.431579                       # Average number of references to valid blocks.
system.cpu.icache.tags.warmup_cycle             77000                       # Cycle when the warmup percentage was hit.
system.cpu.icache.tags.occ_blocks::.cpu.inst   143.842403                       # Average occupied blocks per requestor
system.cpu.icache.tags.occ_percent::.cpu.inst     0.280942                       # Average percentage of cache occupancy
system.cpu.icache.tags.occ_percent::total     0.280942                       # Average percentage of cache occupancy
system.cpu.icache.tags.occ_task_id_blocks::1024          253                       # Occupied blocks per task id
system.cpu.icache.tags.age_task_id_blocks_1024::0           42                       # Occupied blocks per task id
system.cpu.icache.tags.age_task_id_blocks_1024::1          211                       # Occupied blocks per task id
system.cpu.icache.tags.occ_task_id_percent::1024     0.494141                       # Percentage of cache occupancy per task id
system.cpu.icache.tags.tag_accesses             34161                       # Number of tag accesses
system.cpu.icache.tags.data_accesses            34161                       # Number of data accesses
system.cpu.icache.tags.power_state.pwrStateResidencyTicks::UNDEFINED     48211000                       # Cumulative time (in ticks) in various power states
system.cpu.itb.instHits                             0                       # ITB inst hits
system.cpu.itb.instMisses                           0                       # ITB inst misses
system.cpu.itb.readHits                             0                       # DTB read hits
system.cpu.itb.readMisses                           0                       # DTB read misses
system.cpu.itb.writeHits                            0                       # DTB write hits
system.cpu.itb.writeMisses                          0                       # DTB write misses
system.cpu.itb.inserts                              0                       # Number of times an entry is inserted into the TLB
system.cpu.itb.flushTlb                             0                       # Number of times complete TLB was flushed
system.cpu.itb.flushTlbMva                          0                       # Number of times TLB was flushed by MVA
system.cpu.itb.flushTlbMvaAsid                      0                       # Number of times TLB was flushed by MVA & ASID
system.cpu.itb.flushTlbAsid                         0                       # Number of times TLB was flushed by ASID
system.cpu.itb.flushedEntries                       0                       # Number of entries that have been flushed from TLB
system.cpu.itb.alignFaults                          0                       # Number of TLB faults due to alignment restrictions
system.cpu.itb.prefetchFaults                       0                       # Number of TLB faults due to prefetch
system.cpu.itb.domainFaults                         0                       # Number of TLB faults due to domain restrictions
system.cpu.itb.permsFaults                          0                       # Number of TLB faults due to permissions restrictions
system.cpu.itb.readAccesses                         0                       # DTB read accesses
system.cpu.itb.writeAccesses                        0                       # DTB write accesses
system.cpu.itb.instAccesses                         0                       # ITB inst accesses
system.cpu.itb.hits                                 0                       # Total TLB (inst and data) hits
system.cpu.itb.misses                               0                       # Total TLB (inst and data) misses
system.cpu.itb.accesses                             0                       # Total TLB (inst and data) accesses
system.cpu.itb.stage2_mmu.stage2_tlb.instHits            0                       # ITB inst hits
system.cpu.itb.stage2_mmu.stage2_tlb.instMisses            0                       # ITB inst misses
system.cpu.itb.stage2_mmu.stage2_tlb.readHits            0                       # DTB read hits
system.cpu.itb.stage2_mmu.stage2_tlb.readMisses            0                       # DTB read misses
system.cpu.itb.stage2_mmu.stage2_tlb.writeHits            0                       # DTB write hits
system.cpu.itb.stage2_mmu.stage2_tlb.writeMisses            0                       # DTB write misses
system.cpu.itb.stage2_mmu.stage2_tlb.inserts            0                       # Number of times an entry is inserted into the TLB
system.cpu.itb.stage2_mmu.stage2_tlb.flushTlb            0                       # Number of times complete TLB was flushed
system.cpu.itb.stage2_mmu.stage2_tlb.flushTlbMva            0                       # Number of times TLB was flushed by MVA
system.cpu.itb.stage2_mmu.stage2_tlb.flushTlbMvaAsid            0                       # Number of times TLB was flushed by MVA & ASID
system.cpu.itb.stage2_mmu.stage2_tlb.flushTlbAsid            0                       # Number of times TLB was flushed by ASID
system.cpu.itb.stage2_mmu.stage2_tlb.flushedEntries            0                       # Number of entries that have been flushed from TLB
system.cpu.itb.stage2_mmu.stage2_tlb.alignFaults            0                       # Number of TLB faults due to alignment restrictions
system.cpu.itb.stage2_mmu.stage2_tlb.prefetchFaults            0                       # Number of TLB faults due to prefetch
system.cpu.itb.stage2_mmu.stage2_tlb.domainFaults            0                       # Number of TLB faults due to domain restrictions
system.cpu.itb.stage2_mmu.stage2_tlb.permsFaults            0                       # Number of TLB faults due to permissions restrictions
system.cpu.itb.stage2_mmu.stage2_tlb.readAccesses            0                       # DTB read accesses
system.cpu.itb.stage2_mmu.stage2_tlb.writeAccesses            0                       # DTB write accesses
system.cpu.itb.stage2_mmu.stage2_tlb.instAccesses            0                       # ITB inst accesses
system.cpu.itb.stage2_mmu.stage2_tlb.hits            0                       # Total TLB (inst and data) hits
system.cpu.itb.stage2_mmu.stage2_tlb.misses            0                       # Total TLB (inst and data) misses
system.cpu.itb.stage2_mmu.stage2_tlb.accesses            0                       # Total TLB (inst and data) accesses
system.cpu.itb.stage2_mmu.stage2_tlb.walker.walks            0                       # Table walker walks requested
system.cpu.itb.stage2_mmu.stage2_tlb.walker.requestOrigin_Requested::Data            0                       # Table walker requests started/completed, data/inst
system.cpu.itb.stage2_mmu.stage2_tlb.walker.requestOrigin_Requested::Inst            0                       # Table walker requests started/completed, data/inst
system.cpu.itb.stage2_mmu.stage2_tlb.walker.requestOrigin_Requested::total            0                       # Table walker requests started/completed, data/inst
system.cpu.itb.stage2_mmu.stage2_tlb.walker.requestOrigin_Completed::Data            0                       # Table walker requests started/completed, data/inst
system.cpu.itb.stage2_mmu.stage2_tlb.walker.requestOrigin_Completed::Inst            0                       # Table walker requests started/completed, data/inst
system.cpu.itb.stage2_mmu.stage2_tlb.walker.requestOrigin_Completed::total            0                       # Table walker requests started/completed, data/inst
system.cpu.itb.stage2_mmu.stage2_tlb.walker.requestOrigin::total            0                       # Table walker requests started/completed, data/inst
system.cpu.itb.stage2_mmu.stage2_tlb.walker.power_state.pwrStateResidencyTicks::UNDEFINED     48211000                       # Cumulative time (in ticks) in various power states
system.cpu.itb.walker.walks                         0                       # Table walker walks requested
system.cpu.itb.walker.requestOrigin_Requested::Data            0                       # Table walker requests started/completed, data/inst
system.cpu.itb.walker.requestOrigin_Requested::Inst            0                       # Table walker requests started/completed, data/inst
system.cpu.itb.walker.requestOrigin_Requested::total            0                       # Table walker requests started/completed, data/inst
system.cpu.itb.walker.requestOrigin_Completed::Data            0                       # Table walker requests started/completed, data/inst
system.cpu.itb.walker.requestOrigin_Completed::Inst            0                       # Table walker requests started/completed, data/inst
system.cpu.itb.walker.requestOrigin_Completed::total            0                       # Table walker requests started/completed, data/inst
system.cpu.itb.walker.requestOrigin::total            0                       # Table walker requests started/completed, data/inst
system.cpu.itb.walker.power_state.pwrStateResidencyTicks::UNDEFINED     48211000                       # Cumulative time (in ticks) in various power states
system.cpu.power_state.pwrStateResidencyTicks::ON     48211000                       # Cumulative time (in ticks) in various power states
system.cpu.thread_0.numInsts                        0                       # Number of Instructions committed
system.cpu.thread_0.numOps                          0                       # Number of Ops committed
system.cpu.thread_0.numMemRefs                      0                       # Number of Memory References
system.cpu_clk_domain.clock                       500                       # Clock period in ticks
system.cpu_voltage_domain.voltage                   1                       # Voltage in Volts
system.mem_ctrls.avgPriority_.writebacks::samples        29.00                       # Average QoS priority value for accepted requests
system.mem_ctrls.avgPriority_.cpu.inst::samples       280.00                       # Average QoS priority value for accepted requests
system.mem_ctrls.avgPriority_.cpu.data::samples       165.00                       # Average QoS priority value for accepted requests
system.mem_ctrls.priorityMinLatency      0.000000018750                       # per QoS priority minimum request to response latency (s)
system.mem_ctrls.priorityMaxLatency      0.000000543000                       # per QoS priority maximum request to response latency (s)
system.mem_ctrls.numReadWriteTurnArounds            0                       # Number of turnarounds from READ to WRITE
system.mem_ctrls.numWriteReadTurnArounds            0                       # Number of turnarounds from WRITE to READ
system.mem_ctrls.numStayReadState                 932                       # Number of times bus staying in READ state
system.mem_ctrls.numStayWriteState                  0                       # Number of times bus staying in WRITE state
system.mem_ctrls.readReqs                         452                       # Number of read requests accepted
system.mem_ctrls.writeReqs                         30                       # Number of write requests accepted
system.mem_ctrls.readBursts                       452                       # Number of controller read bursts, including those serviced by the write queue
system.mem_ctrls.writeBursts                       30                       # Number of controller write bursts, including those merged in the write queue
system.mem_ctrls.servicedByWrQ                      7                       # Number of controller read bursts serviced by the write queue
system.mem_ctrls.mergedWrBursts                     1                       # Number of controller write bursts merged with an existing one
system.mem_ctrls.neitherReadNorWriteReqs            0                       # Number of requests that are neither read nor write
system.mem_ctrls.avgRdQLen                       1.01                       # Average read queue length when enqueuing
system.mem_ctrls.avgWrQLen                       9.19                       # Average write queue length when enqueuing
system.mem_ctrls.numRdRetry                         0                       # Number of times read queue was full causing retry
system.mem_ctrls.numWrRetry                         0                       # Number of times write queue was full causing retry
system.mem_ctrls.readPktSize::0                     0                       # Read request sizes (log2)
system.mem_ctrls.readPktSize::1                     0                       # Read request sizes (log2)
system.mem_ctrls.readPktSize::2                     0                       # Read request sizes (log2)
system.mem_ctrls.readPktSize::3                     0                       # Read request sizes (log2)
system.mem_ctrls.readPktSize::4                     0                       # Read request sizes (log2)
system.mem_ctrls.readPktSize::5                     0                       # Read request sizes (log2)
system.mem_ctrls.readPktSize::6                   452                       # Read request sizes (log2)
system.mem_ctrls.writePktSize::0                    0                       # Write request sizes (log2)
system.mem_ctrls.writePktSize::1                    0                       # Write request sizes (log2)
system.mem_ctrls.writePktSize::2                    0                       # Write request sizes (log2)
system.mem_ctrls.writePktSize::3                    0                       # Write request sizes (log2)
system.mem_ctrls.writePktSize::4                    0                       # Write request sizes (log2)
system.mem_ctrls.writePktSize::5                    0                       # Write request sizes (log2)
system.mem_ctrls.writePktSize::6                   30                       # Write request sizes (log2)
system.mem_ctrls.rdQLenPdf::0                     442                       # What read queue length does an incoming req see
system.mem_ctrls.rdQLenPdf::1                       3                       # What read queue length does an incoming req see
system.mem_ctrls.rdQLenPdf::2                       0                       # What read queue length does an incoming req see
system.mem_ctrls.rdQLenPdf::3                       0                       # What read queue length does an incoming req see
system.mem_ctrls.rdQLenPdf::4                       0                       # What read queue length does an incoming req see
system.mem_ctrls.rdQLenPdf::5                       0                       # What read queue length does an incoming req see
system.mem_ctrls.rdQLenPdf::6                       0                       # What read queue length does an incoming req see
system.mem_ctrls.rdQLenPdf::7                       0                       # What read queue length does an incoming req see
system.mem_ctrls.rdQLenPdf::8                       0                       # What read queue length does an incoming req see
system.mem_ctrls.rdQLenPdf::9                       0                       # What read queue length does an incoming req see
system.mem_ctrls.rdQLenPdf::10                      0                       # What read queue length does an incoming req see
system.mem_ctrls.rdQLenPdf::11                      0                       # What read queue length does an incoming req see
system.mem_ctrls.rdQLenPdf::12                      0                       # What read queue length does an incoming req see
system.mem_ctrls.rdQLenPdf::13                      0                       # What read queue length does an incoming req see
system.mem_ctrls.rdQLenPdf::14                      0                       # What read queue length does an incoming req see
system.mem_ctrls.rdQLenPdf::15                      0                       # What read queue length does an incoming req see
system.mem_ctrls.rdQLenPdf::16                      0                       # What read queue length does an incoming req see
system.mem_ctrls.rdQLenPdf::17                      0                       # What read queue length does an incoming req see
system.mem_ctrls.rdQLenPdf::18                      0                       # What read queue length does an incoming req see
system.mem_ctrls.rdQLenPdf::19                      0                       # What read queue length does an incoming req see
system.mem_ctrls.rdQLenPdf::20                      0                       # What read queue length does an incoming req see
system.mem_ctrls.rdQLenPdf::21                      0                       # What read queue length does an incoming req see
system.mem_ctrls.rdQLenPdf::22                      0                       # What read queue length does an incoming req see
system.mem_ctrls.rdQLenPdf::23                      0                       # What read queue length does an incoming req see
system.mem_ctrls.rdQLenPdf::24                      0                       # What read queue length does an incoming req see
system.mem_ctrls.rdQLenPdf::25                      0                       # What read queue length does an incoming req see
system.mem_ctrls.rdQLenPdf::26                      0                       # What read queue length does an incoming req see
system.mem_ctrls.rdQLenPdf::27                      0                       # What read queue length does an incoming req see
system.mem_ctrls.rdQLenPdf::28                      0                       # What read queue length does an incoming req see
system.mem_ctrls.rdQLenPdf::29                      0                       # What read queue length does an incoming req see
system.mem_ctrls.rdQLenPdf::30                      0                       # What read queue length does an incoming req see
system.mem_ctrls.rdQLenPdf::31                      0                       # What read queue length does an incoming req see
system.mem_ctrls.wrQLenPdf::0                       1                       # What write queue length does an incoming req see
system.mem_ctrls.wrQLenPdf::1                       1                       # What write queue length does an incoming req see
system.mem_ctrls.wrQLenPdf::2                       1                       # What write queue length does an incoming req see
system.mem_ctrls.wrQLenPdf::3                       1                       # What write queue length does an incoming req see
system.mem_ctrls.wrQLenPdf::4                       1                       # What write queue length does an incoming req see
system.mem_ctrls.wrQLenPdf::5                       1                       # What write queue length does an incoming req see
system.mem_ctrls.wrQLenPdf::6                       1                       # What write queue length does an incoming req see
system.mem_ctrls.wrQLenPdf::7                       1                       # What write queue length does an incoming req see
system.mem_ctrls.wrQLenPdf::8                       1                       # What write queue length does an incoming req see
system.mem_ctrls.wrQLenPdf::9                       1                       # What write queue length does an incoming req see
system.mem_ctrls.wrQLenPdf::10                      1                       # What write queue length does an incoming req see
system.mem_ctrls.wrQLenPdf::11                      1                       # What write queue length does an incoming req see
system.mem_ctrls.wrQLenPdf::12                      1                       # What write queue length does an incoming req see
system.mem_ctrls.wrQLenPdf::13                      1                       # What write queue length does an incoming req see
system.mem_ctrls.wrQLenPdf::14                      1                       # What write queue length does an incoming req see
system.mem_ctrls.wrQLenPdf::15                      1                       # What write queue length does an incoming req see
system.mem_ctrls.wrQLenPdf::16                      1                       # What write queue length does an incoming req see
system.mem_ctrls.wrQLenPdf::17                      1                       # What write queue length does an incoming req see
system.mem_ctrls.wrQLenPdf::18                      1                       # What write queue length does an incoming req see
system.mem_ctrls.wrQLenPdf::19                      1                       # What write queue length does an incoming req see
system.mem_ctrls.wrQLenPdf::20                      1                       # What write queue length does an incoming req see
system.mem_ctrls.wrQLenPdf::21                      1                       # What write queue length does an incoming req see
system.mem_ctrls.wrQLenPdf::22                      1                       # What write queue length does an incoming req see
system.mem_ctrls.wrQLenPdf::23                      1                       # What write queue length does an incoming req see
system.mem_ctrls.wrQLenPdf::24                      1                       # What write queue length does an incoming req see
system.mem_ctrls.wrQLenPdf::25                      1                       # What write queue length does an incoming req see
system.mem_ctrls.wrQLenPdf::26                      1                       # What write queue length does an incoming req see
system.mem_ctrls.wrQLenPdf::27                      1                       # What write queue length does an incoming req see
system.mem_ctrls.wrQLenPdf::28                      1                       # What write queue length does an incoming req see
system.mem_ctrls.wrQLenPdf::29                      0                       # What write queue length does an incoming req see
system.mem_ctrls.wrQLenPdf::30                      0                       # What write queue length does an incoming req see
system.mem_ctrls.wrQLenPdf::31                      0                       # What write queue length does an incoming req see
system.mem_ctrls.wrQLenPdf::32                      0                       # What write queue length does an incoming req see
system.mem_ctrls.wrQLenPdf::33                      0                       # What write queue length does an incoming req see
system.mem_ctrls.wrQLenPdf::34                      0                       # What write queue length does an incoming req see
system.mem_ctrls.wrQLenPdf::35                      0                       # What write queue length does an incoming req see
system.mem_ctrls.wrQLenPdf::36                      0                       # What write queue length does an incoming req see
system.mem_ctrls.wrQLenPdf::37                      0                       # What write queue length does an incoming req see
system.mem_ctrls.wrQLenPdf::38                      0                       # What write queue length does an incoming req see
system.mem_ctrls.wrQLenPdf::39                      0                       # What write queue length does an incoming req see
system.mem_ctrls.wrQLenPdf::40                      0                       # What write queue length does an incoming req see
system.mem_ctrls.wrQLenPdf::41                      0                       # What write queue length does an incoming req see
system.mem_ctrls.wrQLenPdf::42                      0                       # What write queue length does an incoming req see
system.mem_ctrls.wrQLenPdf::43                      0                       # What write queue length does an incoming req see
system.mem_ctrls.wrQLenPdf::44                      0                       # What write queue length does an incoming req see
system.mem_ctrls.wrQLenPdf::45                      0                       # What write queue length does an incoming req see
system.mem_ctrls.wrQLenPdf::46                      0                       # What write queue length does an incoming req see
system.mem_ctrls.wrQLenPdf::47                      0                       # What write queue length does an incoming req see
system.mem_ctrls.wrQLenPdf::48                      0                       # What write queue length does an incoming req see
system.mem_ctrls.wrQLenPdf::49                      0                       # What write queue length does an incoming req see
system.mem_ctrls.wrQLenPdf::50                      0                       # What write queue length does an incoming req see
system.mem_ctrls.wrQLenPdf::51                      0                       # What write queue length does an incoming req see
system.mem_ctrls.wrQLenPdf::52                      0                       # What write queue length does an incoming req see
system.mem_ctrls.wrQLenPdf::53                      0                       # What write queue length does an incoming req see
system.mem_ctrls.wrQLenPdf::54                      0                       # What write queue length does an incoming req see
system.mem_ctrls.wrQLenPdf::55                      0                       # What write queue length does an incoming req see
system.mem_ctrls.wrQLenPdf::56                      0                       # What write queue length does an incoming req see
system.mem_ctrls.wrQLenPdf::57                      0                       # What write queue length does an incoming req see
system.mem_ctrls.wrQLenPdf::58                      0                       # What write queue length does an incoming req see
system.mem_ctrls.wrQLenPdf::59                      0                       # What write queue length does an incoming req see
system.mem_ctrls.wrQLenPdf::60                      0                       # What write queue length does an incoming req see
system.mem_ctrls.wrQLenPdf::61                      0                       # What write queue length does an incoming req see
system.mem_ctrls.wrQLenPdf::62                      0                       # What write queue length does an incoming req see
system.mem_ctrls.wrQLenPdf::63                      0                       # What write queue length does an incoming req see
system.mem_ctrls.bytesReadWrQ                     448                       # Total number of bytes read from write queue
system.mem_ctrls.bytesReadSys                   28928                       # Total read bytes from the system interface side
system.mem_ctrls.bytesWrittenSys                 1920                       # Total written bytes from the system interface side
system.mem_ctrls.avgRdBWSys                    600.03                       # Average system read bandwidth in MiByte/s
system.mem_ctrls.avgWrBWSys                     39.82                       # Average system write bandwidth in MiByte/s
system.mem_ctrls.totGap                      48133000                       # Total gap between requests
system.mem_ctrls.avgGap                      99861.00                       # Average gap between requests
system.mem_ctrls.requestorReadBytes::.cpu.inst        17920                       # Per-requestor bytes read from memory
system.mem_ctrls.requestorReadBytes::.cpu.data        10560                       # Per-requestor bytes read from memory
system.mem_ctrls.requestorReadRate::.cpu.inst 371699404.700172126293                       # Per-requestor bytes read from memory rate (Bytes/sec)
system.mem_ctrls.requestorReadRate::.cpu.data 219037149.198315709829                       # Per-requestor bytes read from memory rate (Bytes/sec)
system.mem_ctrls.requestorReadAccesses::.cpu.inst          285                       # Per-requestor read serviced memory accesses
system.mem_ctrls.requestorReadAccesses::.cpu.data          167                       # Per-requestor read serviced memory accesses
system.mem_ctrls.requestorWriteAccesses::.writebacks           30                       # Per-requestor write serviced memory accesses
system.mem_ctrls.requestorReadTotalLat::.cpu.inst      7147250                       # Per-requestor read total memory access latency
system.mem_ctrls.requestorReadTotalLat::.cpu.data      4406250                       # Per-requestor read total memory access latency
system.mem_ctrls.requestorReadAvgLat::.cpu.inst     25078.07                       # Per-requestor read average memory access latency
system.mem_ctrls.requestorReadAvgLat::.cpu.data     26384.73                       # Per-requestor read average memory access latency
system.mem_ctrls.requestorWriteAvgLat::.writebacks         0.00                       # Per-requestor write average memory access latency
system.mem_ctrls.dram.bytes_read::.cpu.inst        18240                       # Number of bytes read from this memory
system.mem_ctrls.dram.bytes_read::.cpu.data        10688                       # Number of bytes read from this memory
system.mem_ctrls.dram.bytes_read::total         28928                       # Number of bytes read from this memory
system.mem_ctrls.dram.bytes_inst_read::.cpu.inst        18240                       # Number of instructions bytes read from this memory
system.mem_ctrls.dram.bytes_inst_read::total        18240                       # Number of instructions bytes read from this memory
system.mem_ctrls.dram.num_reads::.cpu.inst          285                       # Number of read requests responded to by this memory
system.mem_ctrls.dram.num_reads::.cpu.data          167                       # Number of read requests responded to by this memory
system.mem_ctrls.dram.num_reads::total            452                       # Number of read requests responded to by this memory
system.mem_ctrls.dram.bw_read::.cpu.inst    378336894                       # Total read bandwidth from this memory (bytes/s)
system.mem_ctrls.dram.bw_read::.cpu.data    221692145                       # Total read bandwidth from this memory (bytes/s)
system.mem_ctrls.dram.bw_read::total        600029039                       # Total read bandwidth from this memory (bytes/s)
system.mem_ctrls.dram.bw_inst_read::.cpu.inst    378336894                       # Instruction read bandwidth from this memory (bytes/s)
system.mem_ctrls.dram.bw_inst_read::total    378336894                       # Instruction read bandwidth from this memory (bytes/s)
system.mem_ctrls.dram.bw_total::.cpu.inst    378336894                       # Total bandwidth to/from this memory (bytes/s)
system.mem_ctrls.dram.bw_total::.cpu.data    221692145                       # Total bandwidth to/from this memory (bytes/s)
system.mem_ctrls.dram.bw_total::total       600029039                       # Total bandwidth to/from this memory (bytes/s)
system.mem_ctrls.dram.readBursts                  445                       # Number of DRAM read bursts
system.mem_ctrls.dram.writeBursts                   0                       # Number of DRAM write bursts
system.mem_ctrls.dram.perBankRdBursts::0           43                       # Per bank write bursts
system.mem_ctrls.dram.perBankRdBursts::1            1                       # Per bank write bursts
system.mem_ctrls.dram.perBankRdBursts::2           19                       # Per bank write bursts
system.mem_ctrls.dram.perBankRdBursts::3           30                       # Per bank write bursts
system.mem_ctrls.dram.perBankRdBursts::4            6                       # Per bank write bursts
system.mem_ctrls.dram.perBankRdBursts::5           28                       # Per bank write bursts
system.mem_ctrls.dram.perBankRdBursts::6           36                       # Per bank write bursts
system.mem_ctrls.dram.perBankRdBursts::7           37                       # Per bank write bursts
system.mem_ctrls.dram.perBankRdBursts::8           94                       # Per bank write bursts
system.mem_ctrls.dram.perBankRdBursts::9           58                       # Per bank write bursts
system.mem_ctrls.dram.perBankRdBursts::10           22                       # Per bank write bursts
system.mem_ctrls.dram.perBankRdBursts::11           51                       # Per bank write bursts
system.mem_ctrls.dram.perBankRdBursts::12            8                       # Per bank write bursts
system.mem_ctrls.dram.perBankRdBursts::13            7                       # Per bank write bursts
system.mem_ctrls.dram.perBankRdBursts::14            5                       # Per bank write bursts
system.mem_ctrls.dram.perBankRdBursts::15            0                       # Per bank write bursts
system.mem_ctrls.dram.perBankWrBursts::0            0                       # Per bank write bursts
system.mem_ctrls.dram.perBankWrBursts::1            0                       # Per bank write bursts
system.mem_ctrls.dram.perBankWrBursts::2            0                       # Per bank write bursts
system.mem_ctrls.dram.perBankWrBursts::3            0                       # Per bank write bursts
system.mem_ctrls.dram.perBankWrBursts::4            0                       # Per bank write bursts
system.mem_ctrls.dram.perBankWrBursts::5            0                       # Per bank write bursts
system.mem_ctrls.dram.perBankWrBursts::6            0                       # Per bank write bursts
system.mem_ctrls.dram.perBankWrBursts::7            0                       # Per bank write bursts
system.mem_ctrls.dram.perBankWrBursts::8            0                       # Per bank write bursts
system.mem_ctrls.dram.perBankWrBursts::9            0                       # Per bank write bursts
system.mem_ctrls.dram.perBankWrBursts::10            0                       # Per bank write bursts
system.mem_ctrls.dram.perBankWrBursts::11            0                       # Per bank write bursts
system.mem_ctrls.dram.perBankWrBursts::12            0                       # Per bank write bursts
system.mem_ctrls.dram.perBankWrBursts::13            0                       # Per bank write bursts
system.mem_ctrls.dram.perBankWrBursts::14            0                       # Per bank write bursts
system.mem_ctrls.dram.perBankWrBursts::15            0                       # Per bank write bursts
system.mem_ctrls.dram.totQLat                 3209750                       # Total ticks spent queuing
system.mem_ctrls.dram.totBusLat               2225000                       # Total ticks spent in databus transfers
system.mem_ctrls.dram.totMemAccLat           11553500                       # Total ticks spent from burst creation until serviced by the DRAM
system.mem_ctrls.dram.avgQLat                 7212.92                       # Average queueing delay per DRAM burst
system.mem_ctrls.dram.avgBusLat               5000.00                       # Average bus latency per DRAM burst
system.mem_ctrls.dram.avgMemAccLat           25962.92                       # Average memory access latency per DRAM burst
system.mem_ctrls.dram.readRowHits                 340                       # Number of row buffer hits during reads
system.mem_ctrls.dram.writeRowHits                  0                       # Number of row buffer hits during writes
system.mem_ctrls.dram.readRowHitRate            76.40                       # Row buffer hit rate for reads
system.mem_ctrls.dram.writeRowHitRate             nan                       # Row buffer hit rate for writes
system.mem_ctrls.dram.bytesPerActivate::samples          101                       # Bytes accessed per row activation
system.mem_ctrls.dram.bytesPerActivate::mean   271.841584                       # Bytes accessed per row activation
system.mem_ctrls.dram.bytesPerActivate::gmean   177.201750                       # Bytes accessed per row activation
system.mem_ctrls.dram.bytesPerActivate::stdev   267.946216                       # Bytes accessed per row activation
system.mem_ctrls.dram.bytesPerActivate::0-127           34     33.66%     33.66% # Bytes accessed per row activation
system.mem_ctrls.dram.bytesPerActivate::128-255           27     26.73%     60.40% # Bytes accessed per row activation
system.mem_ctrls.dram.bytesPerActivate::256-383           13     12.87%     73.27% # Bytes accessed per row activation
system.mem_ctrls.dram.bytesPerActivate::384-511           10      9.90%     83.17% # Bytes accessed per row activation
system.mem_ctrls.dram.bytesPerActivate::512-639            4      3.96%     87.13% # Bytes accessed per row activation
system.mem_ctrls.dram.bytesPerActivate::640-767            3      2.97%     90.10% # Bytes accessed per row activation
system.mem_ctrls.dram.bytesPerActivate::768-895            4      3.96%     94.06% # Bytes accessed per row activation
system.mem_ctrls.dram.bytesPerActivate::896-1023            1      0.99%     95.05% # Bytes accessed per row activation
system.mem_ctrls.dram.bytesPerActivate::1024-1151            5      4.95%    100.00% # Bytes accessed per row activation
system.mem_ctrls.dram.bytesPerActivate::total          101                       # Bytes accessed per row activation
system.mem_ctrls.dram.bytesRead                 28480                       # Total number of bytes read from DRAM
system.mem_ctrls.dram.bytesWritten                  0                       # Total number of bytes written to DRAM
system.mem_ctrls.dram.avgRdBW              590.736554                       # Average DRAM read bandwidth in MiBytes/s
system.mem_ctrls.dram.avgWrBW                       0                       # Average DRAM write bandwidth in MiBytes/s
system.mem_ctrls.dram.peakBW                 12800.00                       # Theoretical peak bandwidth in MiByte/s
system.mem_ctrls.dram.busUtil                    4.62                       # Data bus utilization in percentage
system.mem_ctrls.dram.busUtilRead                4.62                       # Data bus utilization in percentage for reads
system.mem_ctrls.dram.busUtilWrite               0.00                       # Data bus utilization in percentage for writes
system.mem_ctrls.dram.pageHitRate               76.40                       # Row buffer hit rate, read and write combined
system.mem_ctrls.dram.power_state.pwrStateResidencyTicks::UNDEFINED     48211000                       # Cumulative time (in ticks) in various power states
system.mem_ctrls.dram.rank0.actEnergy          292740                       # Energy for activate commands per rank (pJ)
system.mem_ctrls.dram.rank0.preEnergy          148005                       # Energy for precharge commands per rank (pJ)
system.mem_ctrls.dram.rank0.readEnergy        1428000                       # Energy for read commands per rank (pJ)
system.mem_ctrls.dram.rank0.writeEnergy             0                       # Energy for write commands per rank (pJ)
system.mem_ctrls.dram.rank0.refreshEnergy 3687840.000000                       # Energy for refresh commands per rank (pJ)
system.mem_ctrls.dram.rank0.actBackEnergy     19569810                       # Energy for active background per rank (pJ)
system.mem_ctrls.dram.rank0.preBackEnergy      2033280                       # Energy for precharge background per rank (pJ)
system.mem_ctrls.dram.rank0.actPowerDownEnergy            0                       # Energy for active power-down per rank (pJ)
system.mem_ctrls.dram.rank0.prePowerDownEnergy            0                       # Energy for precharge power-down per rank (pJ)
system.mem_ctrls.dram.rank0.selfRefreshEnergy            0                       # Energy for self refresh per rank (pJ)
system.mem_ctrls.dram.rank0.totalEnergy      27159675                       # Total energy per rank (pJ)
system.mem_ctrls.dram.rank0.averagePower   563.350169                       # Core power per rank (mW)
system.mem_ctrls.dram.rank0.totalIdleTime            0                       # Total Idle time Per DRAM Rank
system.mem_ctrls.dram.rank0.pwrStateTime::IDLE      5128500                       # Time in different power states
system.mem_ctrls.dram.rank0.pwrStateTime::REF      1560000                       # Time in different power states
system.mem_ctrls.dram.rank0.pwrStateTime::SREF            0                       # Time in different power states
system.mem_ctrls.dram.rank0.pwrStateTime::PRE_PDN            0                       # Time in different power states
system.mem_ctrls.dram.rank0.pwrStateTime::ACT     41522500                       # Time in different power states
system.mem_ctrls.dram.rank0.pwrStateTime::ACT_PDN            0                       # Time in different power states
system.mem_ctrls.dram.rank1.actEnergy          456960                       # Energy for activate commands per rank (pJ)
system.mem_ctrls.dram.rank1.preEnergy          235290                       # Energy for precharge commands per rank (pJ)
system.mem_ctrls.dram.rank1.readEnergy        1749300                       # Energy for read commands per rank (pJ)
system.mem_ctrls.dram.rank1.writeEnergy             0                       # Energy for write commands per rank (pJ)
system.mem_ctrls.dram.rank1.refreshEnergy 3687840.000000                       # Energy for refresh commands per rank (pJ)
system.mem_ctrls.dram.rank1.actBackEnergy     18960480                       # Energy for active background per rank (pJ)
system.mem_ctrls.dram.rank1.preBackEnergy      2546400                       # Energy for precharge background per rank (pJ)
system.mem_ctrls.dram.rank1.actPowerDownEnergy            0                       # Energy for active power-down per rank (pJ)
system.mem_ctrls.dram.rank1.prePowerDownEnergy            0                       # Energy for precharge power-down per rank (pJ)
system.mem_ctrls.dram.rank1.selfRefreshEnergy            0                       # Energy for self refresh per rank (pJ)
system.mem_ctrls.dram.rank1.totalEnergy      27636270                       # Total energy per rank (pJ)
system.mem_ctrls.dram.rank1.averagePower   573.235776                       # Core power per rank (mW)
system.mem_ctrls.dram.rank1.totalIdleTime            0                       # Total Idle time Per DRAM Rank
system.mem_ctrls.dram.rank1.pwrStateTime::IDLE      6449750                       # Time in different power states
system.mem_ctrls.dram.rank1.pwrStateTime::REF      1560000                       # Time in different power states
system.mem_ctrls.dram.rank1.pwrStateTime::SREF            0                       # Time in different power states
system.mem_ctrls.dram.rank1.pwrStateTime::PRE_PDN            0                       # Time in different power states
system.mem_ctrls.dram.rank1.pwrStateTime::ACT     40201250                       # Time in different power states
system.mem_ctrls.dram.rank1.pwrStateTime::ACT_PDN            0                       # Time in different power states
system.mem_ctrls.power_state.pwrStateResidencyTicks::UNDEFINED     48211000                       # Cumulative time (in ticks) in various power states
system.membus.trans_dist::ReadResp                382                       # Transaction distribution
system.membus.trans_dist::WritebackClean           32                       # Transaction distribution
system.membus.trans_dist::ReadExReq                70                       # Transaction distribution
system.membus.trans_dist::ReadExResp               70                       # Transaction distribution
system.membus.trans_dist::ReadCleanReq            285                       # Transaction distribution
system.membus.trans_dist::ReadSharedReq            97                       # Transaction distribution
system.membus.pkt_count_system.cpu.icache.mem_side_port::system.mem_ctrls.port          602                       # Packet count per connected requestor and responder (bytes)
system.membus.pkt_count_system.cpu.dcache.mem_side_port::system.mem_ctrls.port          334                       # Packet count per connected requestor and responder (bytes)
system.membus.pkt_count::total                    936                       # Packet count per connected requestor and responder (bytes)
system.membus.pkt_size_system.cpu.icache.mem_side_port::system.mem_ctrls.port        20288                       # Cumulative packet size per connected requestor and responder (bytes)
system.membus.pkt_size_system.cpu.dcache.mem_side_port::system.mem_ctrls.port        10688                       # Cumulative packet size per connected requestor and responder (bytes)
system.membus.pkt_size::total                   30976                       # Cumulative packet size per connected requestor and responder (bytes)
system.membus.snoops                                0                       # Total snoops (count)
system.membus.snoopTraffic                          0                       # Total snoop traffic (bytes)
system.membus.snoop_fanout::samples               452                       # Request fanout histogram
system.membus.snoop_fanout::mean             0.030973                       # Request fanout histogram
system.membus.snoop_fanout::stdev            0.173438                       # Request fanout histogram
system.membus.snoop_fanout::underflows              0      0.00%      0.00% # Request fanout histogram
system.membus.snoop_fanout::0                     438     96.90%     96.90% # Request fanout histogram
system.membus.snoop_fanout::1                      14      3.10%    100.00% # Request fanout histogram
system.membus.snoop_fanout::2                       0      0.00%    100.00% # Request fanout histogram
system.membus.snoop_fanout::overflows               0      0.00%    100.00% # Request fanout histogram
system.membus.snoop_fanout::min_value               0                       # Request fanout histogram
system.membus.snoop_fanout::max_value               1                       # Request fanout histogram
system.membus.snoop_fanout::total                 452                       # Request fanout histogram
system.membus.power_state.pwrStateResidencyTicks::UNDEFINED     48211000                       # Cumulative time (in ticks) in various power states
system.membus.reqLayer0.occupancy              620500                       # Layer occupancy (ticks)
system.membus.reqLayer0.utilization               1.3                       # Layer utilization (%)
system.membus.respLayer1.occupancy            1516750                       # Layer occupancy (ticks)
system.membus.respLayer1.utilization              3.1                       # Layer utilization (%)
system.membus.respLayer2.occupancy             890250                       # Layer occupancy (ticks)
system.membus.respLayer2.utilization              1.8                       # Layer utilization (%)
system.voltage_domain.voltage                       1                       # Voltage in Volts

---------- End Simulation Statistics   ----------
